BEGIN Options
  PRINT_OPTION  summary
END Options

BEGIN Nonlinear
  OUTER_DVCLOSE       1e-5
  OUTER_MAXIMUM  100
  UNDER_RELAXATION  none
  UNDER_RELAXATION_GAMMA       0.95000000
END Nonlinear

BEGIN LINEAR
  INNER_MAXIMUM  50
  INNER_DVCLOSE  1.0E-06
  INNER_RCLOSE       0.10000000
  LINEAR_ACCELERATION  bicgstab
END LINEAR
