BEGIN Options
  DIGITS 20
END OPTIONS

BEGIN CONTINUOUS FILEOUT sfr.csv
  headwater sfr headwater
  tailwater sfr tailwater
  gage_1 inflow 40
END CONTINUOUS
